--
--                     HORIZONTAL WELL SIMULATION
--                     **************************
--

RUNSPEC
TITLE
HORIZONTAL WELL MODEL

DIMENS
   9    9    6  /

NONNC

OIL

WATER

GAS

DISGAS

FIELD

EQLDIMS
    1  100    2    1    2 /

EQLOPTS
'QUIESC'                          'MOBILE'   /

TABDIMS
    1    1   15   15    1   15 /

WELLDIMS
    2   16    1    2 /

START
   1 'JAN' 1990  /

NSTACK
   25 /

UNIFOUT
UNIFIN

--OPTIONS
--    16*0   1   /




GRID
NOECHO

GRIDFILE
    2    /

DXV
   9*300
/

DYV
  620 400 200 100 60 100 200 400 620
/

DZ
   81*20 81*20 81*20 81*20
   81*30 81*50 
/

TOPS
   81*3590
/

EQUALS
   'PORO'    0.207    /
   'PERMX'   300     /
/

COPY
   'permx'   'permy' /
   'permx'   'permz' /
/

MULTIPLY
   'permz'    0.1  /
/

INIT

RPTGRID
    23*0   1  /

PROPS

PVDG
   400     5.90  0.0130 
   800     2.95  0.0135  
   1200    1.96  0.0140  
   1600    1.47  0.0145 
   2000    1.18  0.0150
   2400    0.98  0.0155
   2800    0.84  0.0160
   3200    0.74  0.0165
   3600    0.65  0.0170
   4000    0.59  0.0175
   4400    0.54  0.0180
   4800    0.49  0.0185
   5200    0.45  0.0190
   5600    0.42  0.0195


/

PVTO
    0.165  400  1.0120 1.17 /
    0.335  800  1.0255 1.14 /
    0.500  1200 1.0380 1.11 /
    0.665  1600 1.0510 1.08 /
    0.828  2000 1.0630 1.06 /
    0.985  2400 1.0750 1.03 /
    1.130  2800 1.0870 1.00 /
    1.270  3200 1.0985 0.98 /
    1.390  3600 1.1100 0.95 
           4000 1.0900 0.98   
           4400 1.0800 1.00 /
/

PVTW
 14.7   1.0142    3.00E-06   0.96000    0.00E+00 /

--GRAVITY
-- 26.6500  1.009107  0.66300 /

DENSITY
         49.1   64.79  0.06054  /

ROCK
 3600.00       0.40E-05 /

SGFN
   0.0000 0.0000 0.0000
   0.0400 0.0000 0.0000
   0.1000 0.0220 0.0000
   0.2000 0.1000 0.0000
   0.3000 0.2400 0.000
   0.4000 0.3400 0.0000
   0.5000 0.4200 0.000
   0.6000 0.5000 0.0000
   0.7000 0.8125 0.0000
   0.7800 1.0000 0.0000
/
--   0.0000 0.0000 0.0000
--   0.0400 0.0000 0.2000
--   0.1000 0.0220 0.5000
--   0.2000 0.1000 1.0000
--   0.3000 0.2400 1.5000
--   0.4000 0.3400 2.0000
--   0.5000 0.4200 2.5000
--   0.6000 0.5000 3.0000
--   0.7000 0.8125 3.5000
--   0.7800 1.0000 3.9000
--/

SOF3
    0.0000 0.0    0.0
    0.3000 0.0000 0.0000
    0.4000 0.0048 0.0048
    0.5000 0.0649 0.0649
    0.6000 0.1250 0.1250
    0.7000 0.4000 0.4000
    0.7800 1.0000 1.0000
/
--    0.3000 0.0000 0.0000
--    0.4000 0.0048 0.0000
--    0.5000 0.0649 0.0000
--    0.6000 0.1250 0.0000
--    0.7000 0.4000 0.0200
--    0.7800 1.0000 1.0000


SWFN
   0.2200 0.0000 6.3000  
   0.3000 0.0700 3.6000
   0.4000 0.1500 2.7000
   0.5000 0.2400 2.2500
   0.6000 0.3300 1.8000
   0.8000 0.6500 0.9000
   0.9000 0.8300 0.4500
   1.0000 1.0000 000000
/

RPTPROPS
   1   1   1   1   1   1   1   0   1   1   /

SOLUTION

RSVD
   3600.0  1.3900
   3700.0  1.39
/
PBVD
  3600.0   3600
  3700.0   3600
/
EQUIL
-- 3600.00 3600.00 3700.00 0.00000 0.00000 0.00000     1      0      10 /
 3600.00 3610.00 3700.00 0.00000 0.00000 0.00000     1      0      10 /
/
--DATUM
--  3600.000 /

RPTSOL
   1   1   1   1   1   0   2   1   0   /

SUMMARY

FOPR
FWCT
FGOR

--SOIL
FOE
FOPT

SCHEDULE

--DRSDT
--   1.000E+20 /

--
--  WELSPECS and COMPDAT define well information in both
--  standard and LGC models.
--
WELSPECS
'prod    ','        ',  2,  5,3600.00,'OIL'
    1*  ,'STD','STOP','YES',1* ,'SEG',   /
'inj     ','        ',  1,  5,3725.00,'WATER'
    1*  ,'STD','STOP','YES',1* ,'SEG',   /
/

COMPDAT
'prod    '   2   5   1   1 'OPEN'  1*    1*    0.3750
    1*      1*      1*     'X' /
'prod    '   3   5   1   1 'OPEN'  1*    1*    0.3750
    1*      1*      1*     'X' /
'prod    '   4   5   1   1 'OPEN'  1*    1*    0.3750
    1*      1*      1*     'X' /
'prod    '   5   5   1   1 'OPEN'  1*    1*    0.3750
    1*      1*      1*     'X' /
'prod    '   6   5   1   1 'OPEN'  1*    1*    0.3750
    1*      1*      1*     'X' /
'prod    '   7   5   1   1 'OPEN'  1*    1*    0.3750
    1*      1*      1*     'X' /
'prod    '   8   5   1   1 'OPEN'  1*    1*    0.3750
    1*      1*      1*     'X' /
    
'inj     '   1   5   6   6 'OPEN'  1*    1*    0.3750
    2.16E04      1*      1*     'X' /
'inj     '   2   5   6   6 'OPEN'  1*    1*    0.3750
    2.16E04      1*      1*     'X' /
'inj     '   3   5   6   6 'OPEN'  1*    1*    0.3750
    2.16E04      1*      1*     'X' /
'inj     '   4   5   6   6 'OPEN'  1*    1*    0.3750
    2.16E04      1*      1*     'X' /
'inj     '   5   5   6   6 'OPEN'  1*    1*    0.3750
    2.16E04      1*      1*     'X' /
'inj     '   6   5   6   6 'OPEN'  1*    1*    0.3750
    2.16E04      1*      1*     'X' /
'inj     '   7   5   6   6 'OPEN'  1*    1*    0.3750
    2.16E04      1*      1*     'X' /
'inj     '   8   5   6   6 'OPEN'  1*    1*    0.3750
    2.16E04      1*      1*     'X' /
'inj     '   9   5   6   6 'OPEN'  1*    1*    0.3750
    2.16E04      1*      1*     'X' /
    
/

WCONPROD
'prod    ','OPEN','RESV'     1*          1*          1*
     1*      9000.00000  1500.000    1*       1*     1*    /
/
WCONINJE
'inj     ','WATER','OPEN','BHP'     1*          1*     3700
     1*         1*         1*/
/     

RPTSCHED
   1   1   1   1   0   0   2   1   1   0   1   2   0   1   1   /

TSTEP
    15*100
/

END
